# WEL package for  MODFLOW-2005, generated by Flopy.
         3         0 
         3         0 # stress period 1
         1        12         5          -350.0
         1        13         8         -5250.0
         1        17         8         -5250.0
