# LPF package for  MODFLOW-2005, generated by Flopy.
        53    -1E+30         0  STORAGECOEFFICIENT 
         1
         0
   1.000000E+00
         0
         0
INTERNAL               1  (25E15.6) -1 #hk layer 1                    
   1.500000E+00   1.500000E+00   1.500000E+00   1.500000E+00   1.500000E+00   1.500000E+00   1.500000E+00   1.500000E+00   1.500000E+00   1.500000E+00   1.500000E+00   1.500000E+00   1.000000E+00   1.000000E+00   1.000000E+00   1.000000E+00   1.000000E+00   1.000000E+00   1.000000E+00   1.000000E+00   1.000000E+00   1.000000E+00   1.000000E+00   1.000000E+00   1.000000E+00
   1.500000E+00   1.500000E+00   1.500000E+00   1.500000E+00   1.500000E+00   1.500000E+00   1.500000E+00   1.500000E+00   1.500000E+00   1.500000E+00   1.500000E+00   1.500000E+00   1.000000E+00   1.000000E+00   1.000000E+00   1.000000E+00   1.000000E+00   1.000000E+00   1.000000E+00   1.000000E+00   1.000000E+00   1.000000E+00   1.000000E+00   1.000000E+00   1.000000E+00
   1.500000E+00   1.500000E+00   1.500000E+00   1.500000E+00   1.500000E+00   1.500000E+00   1.500000E+00   1.500000E+00   1.500000E+00   1.500000E+00   1.500000E+00   1.500000E+00   1.000000E+00   1.000000E+00   1.000000E+00   1.000000E+00   1.000000E+00   1.000000E+00   1.000000E+00   1.000000E+00   1.000000E+00   1.000000E+00   1.000000E+00   1.000000E+00   1.000000E+00
   1.500000E+00   1.500000E+00   1.500000E+00   1.500000E+00   1.500000E+00   1.500000E+00   1.500000E+00   1.500000E+00   1.500000E+00   1.500000E+00   1.500000E+00   1.500000E+00   1.000000E+00   1.000000E+00   1.000000E+00   1.000000E+00   1.000000E+00   1.000000E+00   1.000000E+00   1.000000E+00   1.000000E+00   1.000000E+00   1.000000E+00   1.000000E+00   1.000000E+00
   1.500000E+00   1.500000E+00   1.500000E+00   1.500000E+00   1.500000E+00   1.500000E+00   1.500000E+00   1.500000E+00   1.500000E+00   1.500000E+00   1.500000E+00   1.500000E+00   1.000000E+00   1.000000E+00   1.000000E+00   1.000000E+00   1.000000E+00   1.000000E+00   1.000000E+00   1.000000E+00   1.000000E+00   1.000000E+00   1.000000E+00   1.000000E+00   1.000000E+00
   1.500000E+00   1.500000E+00   1.500000E+00   1.500000E+00   1.500000E+00   1.500000E+00   1.500000E+00   1.500000E+00   1.500000E+00   1.500000E+00   1.500000E+00   1.500000E+00   1.000000E+00   1.000000E+00   1.000000E+00   1.000000E+00   1.000000E+00   1.000000E+00   1.000000E+00   1.000000E+00   1.000000E+00   1.000000E+00   1.000000E+00   1.000000E+00   1.000000E+00
   1.500000E+00   1.500000E+00   1.500000E+00   1.500000E+00   1.500000E+00   1.500000E+00   1.500000E+00   1.500000E+00   1.500000E+00   1.500000E+00   1.500000E+00   1.500000E+00   1.000000E+00   1.000000E+00   1.000000E+00   1.000000E+00   1.000000E+00   1.000000E+00   1.000000E+00   1.000000E+00   1.000000E+00   1.000000E+00   1.000000E+00   1.000000E+00   1.000000E+00
   1.500000E+00   1.500000E+00   1.500000E+00   1.500000E+00   1.500000E+00   1.500000E+00   1.500000E+00   1.500000E+00   1.500000E+00   1.500000E+00   1.500000E+00   1.500000E+00   1.000000E+00   1.000000E+00   1.000000E+00   1.000000E+00   1.000000E+00   1.000000E+00   1.000000E+00   1.000000E+00   1.000000E+00   1.000000E+00   1.000000E+00   1.000000E+00   1.000000E+00
   1.500000E+00   1.500000E+00   1.500000E+00   1.500000E+00   1.500000E+00   1.500000E+00   1.500000E+00   1.500000E+00   1.500000E+00   1.500000E+00   1.500000E+00   1.500000E+00   1.000000E+00   1.000000E+00   1.000000E+00   1.000000E+00   1.000000E+00   1.000000E+00   1.000000E+00   1.000000E+00   1.000000E+00   1.000000E+00   1.000000E+00   1.000000E+00   1.000000E+00
   1.500000E+00   1.500000E+00   1.500000E+00   1.500000E+00   1.500000E+00   1.500000E+00   1.500000E+00   1.500000E+00   1.500000E+00   1.500000E+00   1.500000E+00   1.500000E+00   1.000000E+00   1.000000E+00   1.000000E+00   1.000000E+00   1.000000E+00   1.000000E+00   1.000000E+00   1.000000E+00   1.000000E+00   1.000000E+00   1.000000E+00   1.000000E+00   1.000000E+00
   1.500000E+00   1.500000E+00   1.500000E+00   1.500000E+00   1.500000E+00   1.500000E+00   1.500000E+00   1.500000E+00   1.500000E+00   1.500000E+00   1.500000E+00   1.500000E+00   1.000000E+00   1.000000E+00   1.000000E+00   1.000000E+00   1.000000E+00   1.000000E+00   1.000000E+00   1.000000E+00   1.000000E+00   1.000000E+00   1.000000E+00   1.000000E+00   1.000000E+00
   1.500000E+00   1.500000E+00   1.500000E+00   1.500000E+00   1.500000E+00   1.500000E+00   1.500000E+00   1.500000E+00   1.500000E+00   1.500000E+00   1.500000E+00   1.500000E+00   1.000000E+00   1.000000E+00   1.000000E+00   1.000000E+00   1.000000E+00   1.000000E+00   1.000000E+00   1.000000E+00   1.000000E+00   1.000000E+00   1.000000E+00   1.000000E+00   1.000000E+00
   1.300000E+01   1.300000E+01   1.300000E+01   1.300000E+01   1.300000E+01   1.300000E+01   1.300000E+01   1.300000E+01   1.300000E+01   1.300000E+01   1.300000E+01   1.300000E+01   8.400000E+00   8.400000E+00   8.400000E+00   8.400000E+00   8.400000E+00   8.400000E+00   8.400000E+00   8.400000E+00   8.400000E+00   8.400000E+00   8.400000E+00   8.400000E+00   8.400000E+00
   1.300000E+01   1.300000E+01   1.300000E+01   1.300000E+01   1.300000E+01   1.300000E+01   1.300000E+01   1.300000E+01   1.300000E+01   1.300000E+01   1.300000E+01   1.300000E+01   8.400000E+00   8.400000E+00   8.400000E+00   8.400000E+00   8.400000E+00   8.400000E+00   8.400000E+00   8.400000E+00   8.400000E+00   8.400000E+00   8.400000E+00   8.400000E+00   8.400000E+00
   1.300000E+01   1.300000E+01   1.300000E+01   1.300000E+01   1.300000E+01   1.300000E+01   1.300000E+01   1.300000E+01   1.300000E+01   1.300000E+01   1.300000E+01   1.300000E+01   8.400000E+00   8.400000E+00   8.400000E+00   8.400000E+00   8.400000E+00   8.400000E+00   8.400000E+00   8.400000E+00   8.400000E+00   8.400000E+00   8.400000E+00   8.400000E+00   8.400000E+00
   1.300000E+01   1.300000E+01   1.300000E+01   1.300000E+01   1.300000E+01   1.300000E+01   1.300000E+01   1.300000E+01   1.300000E+01   1.300000E+01   1.300000E+01   1.300000E+01   8.400000E+00   8.400000E+00   8.400000E+00   8.400000E+00   8.400000E+00   8.400000E+00   8.400000E+00   8.400000E+00   8.400000E+00   8.400000E+00   8.400000E+00   8.400000E+00   8.400000E+00
   1.300000E+01   1.300000E+01   1.300000E+01   1.300000E+01   1.300000E+01   1.300000E+01   1.300000E+01   1.300000E+01   1.300000E+01   1.300000E+01   1.300000E+01   1.300000E+01   8.400000E+00   8.400000E+00   8.400000E+00   8.400000E+00   8.400000E+00   8.400000E+00   8.400000E+00   8.400000E+00   8.400000E+00   8.400000E+00   8.400000E+00   8.400000E+00   8.400000E+00
   1.300000E+01   1.300000E+01   1.300000E+01   1.300000E+01   1.300000E+01   1.300000E+01   1.300000E+01   1.300000E+01   1.300000E+01   1.300000E+01   1.300000E+01   1.300000E+01   8.400000E+00   8.400000E+00   8.400000E+00   8.400000E+00   8.400000E+00   8.400000E+00   8.400000E+00   8.400000E+00   8.400000E+00   8.400000E+00   8.400000E+00   8.400000E+00   8.400000E+00
   1.300000E+01   1.300000E+01   1.300000E+01   1.300000E+01   1.300000E+01   1.300000E+01   1.300000E+01   1.300000E+01   1.300000E+01   1.300000E+01   1.300000E+01   1.300000E+01   8.400000E+00   8.400000E+00   8.400000E+00   8.400000E+00   8.400000E+00   8.400000E+00   8.400000E+00   8.400000E+00   8.400000E+00   8.400000E+00   8.400000E+00   8.400000E+00   8.400000E+00
   1.300000E+01   1.300000E+01   1.300000E+01   1.300000E+01   1.300000E+01   1.300000E+01   1.300000E+01   1.300000E+01   1.300000E+01   1.300000E+01   1.300000E+01   1.300000E+01   8.400000E+00   8.400000E+00   8.400000E+00   8.400000E+00   8.400000E+00   8.400000E+00   8.400000E+00   8.400000E+00   8.400000E+00   8.400000E+00   8.400000E+00   8.400000E+00   8.400000E+00
   1.300000E+01   1.300000E+01   1.300000E+01   1.300000E+01   1.300000E+01   1.300000E+01   1.300000E+01   1.300000E+01   1.300000E+01   1.300000E+01   1.300000E+01   1.300000E+01   8.400000E+00   8.400000E+00   8.400000E+00   8.400000E+00   8.400000E+00   8.400000E+00   8.400000E+00   8.400000E+00   8.400000E+00   8.400000E+00   8.400000E+00   8.400000E+00   8.400000E+00
   1.300000E+01   1.300000E+01   1.300000E+01   1.300000E+01   1.300000E+01   1.300000E+01   1.300000E+01   1.300000E+01   1.300000E+01   1.300000E+01   1.300000E+01   1.300000E+01   8.400000E+00   8.400000E+00   8.400000E+00   8.400000E+00   8.400000E+00   8.400000E+00   8.400000E+00   8.400000E+00   8.400000E+00   8.400000E+00   8.400000E+00   8.400000E+00   8.400000E+00
   1.300000E+01   1.300000E+01   1.300000E+01   1.300000E+01   1.300000E+01   1.300000E+01   1.300000E+01   1.300000E+01   1.300000E+01   1.300000E+01   1.300000E+01   1.300000E+01   8.400000E+00   8.400000E+00   8.400000E+00   8.400000E+00   8.400000E+00   8.400000E+00   8.400000E+00   8.400000E+00   8.400000E+00   8.400000E+00   8.400000E+00   8.400000E+00   8.400000E+00
   1.300000E+01   1.300000E+01   1.300000E+01   1.300000E+01   1.300000E+01   1.300000E+01   1.300000E+01   1.300000E+01   1.300000E+01   1.300000E+01   1.300000E+01   1.300000E+01   8.400000E+00   8.400000E+00   8.400000E+00   8.400000E+00   8.400000E+00   8.400000E+00   8.400000E+00   8.400000E+00   8.400000E+00   8.400000E+00   8.400000E+00   8.400000E+00   8.400000E+00
   1.300000E+01   1.300000E+01   1.300000E+01   1.300000E+01   1.300000E+01   1.300000E+01   1.300000E+01   1.300000E+01   1.300000E+01   1.300000E+01   1.300000E+01   1.300000E+01   8.400000E+00   8.400000E+00   8.400000E+00   8.400000E+00   8.400000E+00   8.400000E+00   8.400000E+00   8.400000E+00   8.400000E+00   8.400000E+00   8.400000E+00   8.400000E+00   8.400000E+00
CONSTANT    1.000000E+00                           #vka1                          
