# EVT package for  MODFLOW-2005, generated by Flopy.
         3        53
         1         1         1         1 # Evapotranspiration  dataset 5 for stress period 1
CONSTANT    5.750000E+02                           #surf1                         
INTERNAL               1  (25E15.6) -1 #evtr1                         
   2.000000E+00   2.000000E+00   2.000000E+00   2.000000E+00   2.000000E+00   2.000000E+00   2.000000E+00   2.000000E+00   2.000000E+00   2.000000E+00   2.000000E+00   2.000000E+00   2.000000E+00   2.000000E+00   2.000000E+00   2.000000E+00   2.000000E+00   2.000000E+00   2.000000E+00   2.000000E+00   2.000000E+00   2.000000E+00   2.000000E+00   2.000000E+00   2.000000E+00
   2.000000E+00   2.000000E+00   2.000000E+00   2.000000E+00   2.000000E+00   2.000000E+00   2.000000E+00   2.000000E+00   2.000000E+00   2.000000E+00   2.000000E+00   2.000000E+00   2.000000E+00   2.000000E+00   2.000000E+00   2.000000E+00   2.000000E+00   2.000000E+00   2.000000E+00   2.000000E+00   2.000000E+00   2.000000E+00   2.000000E+00   2.000000E+00   2.000000E+00
   2.000000E+00   2.000000E+00   2.000000E+00   2.000000E+00   2.000000E+00   2.000000E+00   2.000000E+00   2.000000E+00   2.000000E+00   2.000000E+00   2.000000E+00   2.000000E+00   2.000000E+00   2.000000E+00   2.000000E+00   2.000000E+00   2.000000E+00   2.000000E+00   2.000000E+00   2.000000E+00   2.000000E+00   2.000000E+00   2.000000E+00   2.000000E+00   2.000000E+00
   2.000000E+00   2.000000E+00   2.000000E+00   2.000000E+00   2.000000E+00   2.000000E+00   2.000000E+00   2.000000E+00   2.000000E+00   2.000000E+00   2.000000E+00   2.000000E+00   2.000000E+00   2.000000E+00   2.000000E+00   2.000000E+00   2.000000E+00   2.000000E+00   2.000000E+00   2.000000E+00   2.000000E+00   2.000000E+00   2.000000E+00   2.000000E+00   2.000000E+00
   2.000000E+00   2.000000E+00   2.000000E+00   2.000000E+00   2.000000E+00   2.000000E+00   2.000000E+00   2.000000E+00   2.000000E+00   2.000000E+00   2.000000E+00   2.000000E+00   2.000000E+00   2.000000E+00   2.000000E+00   2.000000E+00   2.000000E+00   2.000000E+00   2.000000E+00   2.000000E+00   2.000000E+00   2.000000E+00   2.000000E+00   2.000000E+00   2.000000E+00
   2.000000E+00   2.000000E+00   2.000000E+00   2.000000E+00   2.000000E+00   2.000000E+00   2.000000E+00   2.000000E+00   2.000000E+00   2.000000E+00   2.000000E+00   2.000000E+00   2.000000E+00   2.000000E+00   2.000000E+00   2.000000E+00   2.000000E+00   2.000000E+00   2.000000E+00   2.000000E+00   2.000000E+00   2.000000E+00   2.000000E+00   2.000000E+00   2.000000E+00
   2.000000E+00   2.000000E+00   2.000000E+00   2.000000E+00   2.000000E+00   2.000000E+00   2.000000E+00   2.000000E+00   2.000000E+00   2.000000E+00   2.000000E+00   2.000000E+00   2.000000E+00   2.000000E+00   2.000000E+00   2.000000E+00   2.000000E+00   2.000000E+00   2.000000E+00   2.000000E+00   2.000000E+00   2.000000E+00   2.000000E+00   2.000000E+00   2.000000E+00
   2.000000E+00   2.000000E+00   2.000000E+00   2.000000E+00   2.000000E+00   2.000000E+00   2.000000E+00   2.000000E+00   2.000000E+00   2.000000E+00   2.000000E+00   2.000000E+00   2.000000E+00   2.000000E+00   2.000000E+00   2.000000E+00   2.000000E+00   2.000000E+00   2.000000E+00   2.000000E+00   2.000000E+00   2.000000E+00   2.000000E+00   2.000000E+00   2.000000E+00
   2.000000E+00   2.000000E+00   2.000000E+00   2.000000E+00   2.000000E+00   2.000000E+00   2.000000E+00   2.000000E+00   2.000000E+00   2.000000E+00   2.000000E+00   2.000000E+00   2.000000E+00   2.000000E+00   2.000000E+00   2.000000E+00   2.000000E+00   2.000000E+00   2.000000E+00   2.000000E+00   2.000000E+00   2.000000E+00   2.000000E+00   2.000000E+00   2.000000E+00
   2.000000E+00   2.000000E+00   2.000000E+00   2.000000E+00   2.000000E+00   2.000000E+00   2.000000E+00   2.000000E+00   2.000000E+00   2.000000E+00   2.000000E+00   2.000000E+00   2.000000E+00   2.000000E+00   2.000000E+00   2.000000E+00   2.000000E+00   2.000000E+00   2.000000E+00   2.000000E+00   2.000000E+00   2.000000E+00   2.000000E+00   2.000000E+00   2.000000E+00
   2.000000E+00   2.000000E+00   2.000000E+00   2.000000E+00   2.000000E+00   2.000000E+00   2.000000E+00   2.000000E+00   2.000000E+00   2.000000E+00   2.000000E+00   2.000000E+00   2.000000E+00   2.000000E+00   2.000000E+00   2.000000E+00   2.000000E+00   2.000000E+00   2.000000E+00   2.000000E+00   2.000000E+00   2.000000E+00   2.000000E+00   2.000000E+00   2.000000E+00
   2.000000E+00   2.000000E+00   2.000000E+00   2.000000E+00   2.000000E+00   2.000000E+00   2.000000E+00   2.000000E+00   2.000000E+00   2.000000E+00   2.000000E+00   2.000000E+00   2.000000E+00   2.000000E+00   2.000000E+00   2.000000E+00   2.000000E+00   2.000000E+00   2.000000E+00   2.000000E+00   2.000000E+00   2.000000E+00   2.000000E+00   2.000000E+00   2.000000E+00
   2.000000E+00   2.000000E+00   2.000000E+00   2.000000E+00   2.000000E+00   2.000000E+00   2.000000E+00   2.000000E+00   2.000000E+00   2.000000E+00   2.000000E+00   2.000000E+00   2.000000E+00   2.000000E+00   2.000000E+00   2.000000E+00   2.000000E+00   2.000000E+00   2.000000E+00   2.000000E+00   2.000000E+00   2.000000E+00   2.000000E+00   2.000000E+00   2.000000E+00
   2.000000E+00   2.000000E+00   2.000000E+00   2.000000E+00   2.000000E+00   2.000000E+00   2.000000E+00   2.000000E+00   2.000000E+00   2.000000E+00   2.000000E+00   2.000000E+00   2.000000E+00   2.000000E+00   2.000000E+00   2.000000E+00   2.000000E+00   2.000000E+00   2.000000E+00   2.000000E+00   2.000000E+00   2.000000E+00   2.000000E+00   2.000000E+00   2.000000E+00
   2.000000E+00   2.000000E+00   2.000000E+00   2.000000E+00   2.000000E+00   2.000000E+00   2.000000E+00   2.000000E+00   2.000000E+00   2.000000E+00   2.000000E+00   2.000000E+00   2.000000E+00   2.000000E+00   2.000000E+00   2.000000E+00   2.000000E+00   2.000000E+00   2.000000E+00   2.000000E+00   2.000000E+00   2.000000E+00   2.000000E+00   2.000000E+00   2.000000E+00
   2.000000E+00   2.000000E+00   2.000000E+00   2.000000E+00   2.000000E+00   2.000000E+00   2.000000E+00   2.000000E+00   2.000000E+00   2.000000E+00   2.000000E+00   2.000000E+00   2.000000E+00   2.000000E+00   2.000000E+00   2.000000E+00   2.000000E+00   2.000000E+00   2.000000E+00   2.000000E+00   2.000000E+00   2.000000E+00   2.000000E+00   2.000000E+00   2.000000E+00
   2.000000E+00   2.000000E+00   2.000000E+00   2.000000E+00   2.000000E+00   2.000000E+00   2.000000E+00   2.000000E+00   2.000000E+00   2.000000E+00   2.000000E+00   2.000000E+00   2.000000E+00   2.000000E+00   2.000000E+00   2.000000E+00   2.000000E+00   2.000000E+00   2.000000E+00   2.000000E+00   2.000000E+00   2.000000E+00   2.000000E+00   2.000000E+00   2.000000E+00
   2.000000E+00   2.000000E+00   2.000000E+00   2.000000E+00   2.000000E+00   2.000000E+00   2.000000E+00   2.000000E+00   2.000000E+00   2.000000E+00   2.000000E+00   2.000000E+00   2.000000E+00   2.000000E+00   2.000000E+00   2.000000E+00   2.000000E+00   2.000000E+00   2.000000E+00   2.000000E+00   2.000000E+00   2.000000E+00   2.000000E+00   2.000000E+00   2.000000E+00
   2.000000E+00   2.000000E+00   2.000000E+00   2.000000E+00   2.000000E+00   2.000000E+00   2.000000E+00   2.000000E+00   2.000000E+00   2.000000E+00   2.000000E+00   2.000000E+00   2.000000E+00   2.000000E+00   2.000000E+00   2.000000E+00   2.000000E+00   2.000000E+00   2.000000E+00   2.000000E+00   2.000000E+00   2.000000E+00   2.000000E+00   2.000000E+00   2.000000E+00
   2.000000E+00   2.000000E+00   2.000000E+00   2.000000E+00   2.000000E+00   2.000000E+00   2.000000E+00   2.000000E+00   2.000000E+00   2.000000E+00   2.000000E+00   2.000000E+00   2.000000E+00   2.000000E+00   2.000000E+00   2.000000E+00   2.000000E+00   2.000000E+00   2.000000E+00   2.000000E+00   2.000000E+00   2.000000E+00   2.000000E+00   2.000000E+00   2.000000E+00
   2.000000E+00   2.000000E+00   2.000000E+00   2.000000E+00   2.000000E+00   2.000000E+00   2.000000E+00   2.000000E+00   2.000000E+00   2.000000E+00   2.000000E+00   2.000000E+00   2.000000E+00   2.000000E+00   2.000000E+00   2.000000E+00   2.000000E+00   2.000000E+00   2.000000E+00   2.000000E+00   2.000000E+00   2.000000E+00   2.000000E+00   2.000000E+00   2.000000E+00
   2.000000E+00   2.000000E+00   2.000000E+00   2.000000E+00   2.000000E+00   2.000000E+00   2.000000E+00   2.000000E+00   2.000000E+00   2.000000E+00   2.000000E+00   2.000000E+00   2.000000E+00   2.000000E+00   2.000000E+00   2.000000E+00   2.000000E+00   2.000000E+00   2.000000E+00   2.000000E+00   2.000000E+00   2.000000E+00   2.000000E+00   2.000000E+00   2.000000E+00
   2.000000E+00   2.000000E+00   2.000000E+00   2.000000E+00   2.000000E+00   2.000000E+00   2.000000E+00   2.000000E+00   2.000000E+00   2.000000E+00   2.000000E+00   2.000000E+00   2.000000E+00   2.000000E+00   2.000000E+00   2.000000E+00   2.000000E+00   2.000000E+00   2.000000E+00   2.000000E+00   2.000000E+00   2.000000E+00   2.000000E+00   2.000000E+00   2.000000E+00
   2.000000E+00   2.000000E+00   2.000000E+00   2.000000E+00   2.000000E+00   2.000000E+00   2.000000E+00   2.000000E+00   2.000000E+00   2.000000E+00   2.000000E+00   2.000000E+00   2.000000E+00   2.000000E+00   2.000000E+00   2.000000E+00   2.000000E+00   2.000000E+00   2.000000E+00   2.000000E+00   2.000000E+00   2.000000E+00   2.000000E+00   2.000000E+00   2.000000E+00
   2.000000E+00   2.000000E+00   2.000000E+00   2.000000E+00   2.000000E+00   2.000000E+00   2.000000E+00   2.000000E+00   2.000000E+00   2.000000E+00   2.000000E+00   2.000000E+00   2.000000E+00   2.000000E+00   2.000000E+00   2.000000E+00   2.000000E+00   2.000000E+00   2.000000E+00   2.000000E+00   2.000000E+00   2.000000E+00   2.000000E+00   2.000000E+00   2.000000E+00
CONSTANT    2.000000E+01                           #exdp1                         
